<NUMBER OF ZONES> 2
<TOTAL OD FLOW>  6000.00 
<END OF METADATA>


Origin 1 
    2 :     6000.00;